Version 4
SHEET 1 1304 680
WIRE 896 -352 848 -352
WIRE 896 -336 896 -352
WIRE 848 -288 848 -352
WIRE 816 -272 640 -272
WIRE 1056 -256 880 -256
WIRE 1184 -256 1056 -256
WIRE -96 -240 -96 -272
WIRE 784 -240 672 -240
WIRE 816 -240 784 -240
WIRE 256 -176 256 -208
WIRE 256 -176 160 -176
WIRE 320 -176 256 -176
WIRE 784 -160 784 -240
WIRE 976 -160 784 -160
WIRE 1056 -160 1056 -256
WIRE -96 -128 -96 -160
WIRE 672 -112 672 -240
WIRE -96 -80 -96 -128
WIRE 784 -80 784 -160
WIRE 816 -80 784 -80
WIRE 1056 -80 896 -80
WIRE 160 -32 160 -96
WIRE 320 -32 320 -96
WIRE 976 0 784 0
WIRE 1056 0 1056 -80
WIRE -96 16 -96 0
WIRE 160 32 160 -32
WIRE 320 32 320 -32
WIRE 672 96 672 -32
WIRE 784 96 784 0
WIRE 784 96 672 96
WIRE 816 96 784 96
WIRE -96 112 -96 96
WIRE 256 112 160 112
WIRE 320 112 256 112
WIRE 1056 112 1056 0
WIRE 1056 112 880 112
WIRE 816 128 640 128
WIRE 256 144 256 112
WIRE -96 208 -96 192
WIRE 784 224 784 96
WIRE 928 224 784 224
WIRE 1248 224 1008 224
FLAG -96 208 0
FLAG -96 96 VS
FLAG 256 144 0
FLAG 256 -208 VS
FLAG 160 -32 Vin-
FLAG 320 -32 Vin+
FLAG -96 16 0
FLAG -96 -272 VS
FLAG -96 -128 Ref
FLAG 640 128 Vin-
FLAG 640 -272 Vin+
FLAG 1184 -256 Vout
FLAG 896 -336 0
FLAG 848 144 0
FLAG 848 -224 VS
FLAG 848 80 VS
FLAG 1248 224 Ref
SYMBOL voltage -96 96 R0
SYMATTR InstName V1
SYMATTR Value 3.3
SYMBOL res 304 -192 R0
SYMATTR InstName R1
SYMATTR Value 994
SYMBOL res 304 16 R0
SYMATTR InstName R2
SYMATTR Value 1000
SYMBOL res 144 16 R0
SYMATTR InstName R3
SYMATTR Value 996
SYMBOL res 144 -192 R0
SYMATTR InstName R4
SYMATTR Value 999
SYMBOL res -112 -256 R0
SYMATTR InstName R5
SYMATTR Value 100k
SYMBOL res -112 -96 R0
SYMATTR InstName R6
SYMATTR Value 3125
SYMBOL res 656 -128 R0
SYMATTR InstName RG
SYMATTR Value 656
SYMBOL OpAmps\\OP747 848 -192 M180
SYMATTR InstName U1
SYMBOL OpAmps\\OP747 848 48 R0
SYMATTR InstName U2
SYMBOL res 1072 -176 R90
WINDOW 0 0 56 VBottom 2
WINDOW 3 32 56 VTop 2
SYMATTR InstName R8
SYMATTR Value 100k
SYMBOL res 912 -96 R90
WINDOW 0 0 56 VBottom 2
WINDOW 3 32 56 VTop 2
SYMATTR InstName R9
SYMATTR Value 25k
SYMBOL res 1072 -16 R90
WINDOW 0 0 56 VBottom 2
WINDOW 3 32 56 VTop 2
SYMATTR InstName R10
SYMATTR Value 25k
SYMBOL res 1024 208 R90
WINDOW 0 0 56 VBottom 2
WINDOW 3 32 56 VTop 2
SYMATTR InstName R11
SYMATTR Value 100k
TEXT -140 286 Left 2 !.op
